demos/Bus_37/ieee33_Curr_Elem.Txt

CIRCUIT ELEMENT CURRENTS

(Currents into element from indicated bus)

Power Delivery Elements

  Bus     Phase    Magnitude, A     Angle      (Real)   +j  (Imag)

ELEMENT = "Vsource.SOURCE"
SOURCEBUS     1           8.4853 /_  142.1 =    -6.6951 +j    5.2131
SOURCEBUS     2           6.3576 /_   26.6 =     5.6855 +j    2.8451
SOURCEBUS     3           8.1212 /_  -82.9 =     1.0096 +j   -8.0582
------------
SOURCEBUS     0           8.4853 /_  -37.9 =     6.6951 +j   -5.2131
SOURCEBUS     0           6.3576 /_ -153.4 =    -5.6855 +j   -2.8451
SOURCEBUS     0           8.1212 /_   97.1 =    -1.0096 +j    8.0582

ELEMENT = "Transformer.SUBXF"
SOURCEBUS     1           8.4853 /_  -37.9 =     6.6951 +j   -5.2131
SOURCEBUS     2           6.3576 /_ -153.4 =    -5.6855 +j   -2.8451
SOURCEBUS     3           8.1212 /_   97.1 =    -1.0096 +j    8.0582
SOURCEBUS     0                0 /_    0.0 =          0 +j         0
------------
799           1           406.59 /_  142.1 =     -320.8 +j     249.8
799           2           304.63 /_   26.6 =     272.43 +j    136.33
799           3           389.14 /_  -82.9 =     48.377 +j   -386.12
799           0                0 /_    0.0 =          0 +j         0

ELEMENT = "Transformer.XFM1"
709           1       3.803E-005 /_  -94.7 =  -3.1424E-006 +j -3.79E-005
709           2      4.0007E-005 /_  145.9 =  -3.3115E-005 +j 2.2449E-005
709           3      3.9407E-005 /_   23.1 =  3.6252E-005 +j 1.5451E-005
709           0                0 /_    0.0 =          0 +j         0
------------
775           1      4.0674E-012 /_ -153.4 =  -3.638E-012 +j -1.819E-012
775           2      1.2733E-011 /_    0.0 =  1.2733E-011 +j         0
775           3       7.276E-012 /_  180.0 =  -7.276E-012 +j         0
775           0                0 /_    0.0 =          0 +j         0

ELEMENT = "Line.L1"
701           1           268.13 /_  -34.8 =     220.08 +j   -153.16
701           2           221.65 /_ -153.0 =    -197.41 +j   -100.78
701           3           254.95 /_   95.1 =    -22.667 +j    253.94
------------
702           1           268.16 /_  145.2 =    -220.07 +j    153.23
702           2           221.68 /_   27.0 =     197.46 +j    100.74
702           3           254.97 /_  -84.9 =     22.609 +j   -253.97

ELEMENT = "Line.L2"
702           1           21.179 /_  -56.8 =     11.583 +j    -17.73
702           2           20.753 /_ -125.1 =    -11.927 +j   -16.983
702           3           34.716 /_   89.4 =    0.34433 +j    34.714
------------
705           1           21.188 /_  123.1 =    -11.582 +j    17.743
705           2           20.753 /_   54.9 =     11.938 +j    16.976
705           3           34.721 /_  -90.6 =   -0.35584 +j   -34.719

ELEMENT = "Line.L3"
702           1           59.617 /_  -41.0 =     45.005 +j     -39.1
702           2           72.217 /_ -137.4 =    -53.199 +j   -48.838
702           3           88.318 /_   84.7 =     8.1944 +j    87.937
------------
713           1           59.626 /_  139.0 =    -45.004 +j    39.113
713           2            72.22 /_   42.5 =     53.211 +j     48.83
713           3           88.325 /_  -95.3 =    -8.2073 +j   -87.943

ELEMENT = "Line.L4"
702           1           189.79 /_  -30.5 =     163.49 +j   -96.395
702           2           136.87 /_ -165.2 =    -132.34 +j   -34.919
702           3           134.96 /_  103.3 =    -31.147 +j    131.31
------------
703           1           189.82 /_  149.5 =    -163.48 +j     96.48
703           2           136.93 /_   14.8 =     132.41 +j    34.869
703           3           134.97 /_  -76.7 =     31.067 +j   -131.35

ELEMENT = "Line.L5"
703           1           43.084 /_  -24.9 =     39.091 +j   -18.113
703           2            35.92 /_ -166.8 =    -34.965 +j   -8.2291
703           3           26.663 /_   98.9 =    -4.1261 +j    26.342
------------
727           1           43.086 /_  155.1 =    -39.091 +j     18.12
727           2           35.926 /_   13.2 =     34.971 +j    8.2248
727           3           26.665 /_  -81.1 =     4.1193 +j   -26.345

ELEMENT = "Line.L6"
703           1           147.02 /_  -32.2 =     124.39 +j   -78.367
703           2           101.02 /_ -164.7 =    -97.447 +j    -26.64
703           3           108.41 /_  104.4 =    -26.941 +j    105.01
------------
730           1           147.03 /_  147.8 =    -124.39 +j    78.389
730           2           101.04 /_   15.3 =     97.466 +j    26.627
730           3           108.41 /_  -75.6 =     26.919 +j   -105.02

ELEMENT = "Line.L7"
704           1           23.069 /_    1.3 =     23.064 +j   0.50816
704           2           25.983 /_ -169.7 =    -25.564 +j   -4.6488
704           3           4.8371 /_   58.9 =     2.5004 +j    4.1407
------------
714           1           23.069 /_ -178.7 =    -23.064 +j  -0.50574
714           2           25.985 /_   10.3 =     25.566 +j    4.6474
714           3           4.8391 /_ -121.1 =    -2.5027 +j   -4.1417

ELEMENT = "Line.L8"
704           1           25.056 /_  -60.9 =     12.199 +j   -21.886
704           2           52.117 /_ -122.1 =    -27.664 +j   -44.169
704           3           67.842 /_   76.8 =     15.465 +j    66.055
------------
720           1           25.081 /_  119.1 =    -12.196 +j    21.916
720           2           52.116 /_   57.9 =      27.69 +j    44.151
720           3            67.86 /_ -103.2 =    -15.494 +j   -66.068

ELEMENT = "Line.L9"
705           1           1.8324 /_    0.1 =     1.8324 +j 0.0032146
705           2           20.754 /_ -125.1 =    -11.944 +j   -16.972
705           3           19.753 /_   59.2 =     10.112 +j    16.969
------------
742           1           1.8317 /_  179.8 =    -1.8317 +j 0.0064993
742           2           20.754 /_   54.8 =     11.953 +j    16.966
742           3           19.761 /_ -120.8 =    -10.121 +j   -16.973

ELEMENT = "Line.L10"
705           1           20.248 /_  -61.2 =     9.7497 +j   -17.746
705           2        0.0076423 /_  -34.2 =  0.0063219 +j -0.0042941
705           3           20.255 /_  118.8 =     -9.756 +j     17.75
------------
712           1           20.254 /_  118.8 =    -9.7491 +j    17.753
712           2       4.174E-012 /_  -60.6 =  2.0464E-012 +j -3.638E-012
712           3           20.254 /_  -61.2 =     9.7491 +j   -17.753

ELEMENT = "Line.L11"
706           1        0.0084959 /_   85.5 =  0.0006695 +j 0.0084695
706           2            9.751 /_ -122.2 =     -5.195 +j   -8.2519
706           3           9.7435 /_   57.8 =     5.1944 +j    8.2434
------------
725           1       1.875E-012 /_   76.0 =  4.5475E-013 +j 1.819E-012
725           2           9.7507 /_   57.8 =     5.2024 +j    8.2469
725           3           9.7507 /_ -122.2 =    -5.2024 +j   -8.2469

ELEMENT = "Line.L12"
707           1         0.023048 /_   85.5 =  0.0018059 +j  0.022977
707           2           9.7637 /_ -122.1 =    -5.1832 +j   -8.2744
707           3           9.7433 /_   57.9 =     5.1814 +j    8.2514
------------
724           1      8.1981E-013 /_   56.3 =  4.5475E-013 +j 6.8212E-013
724           2           9.7628 /_   57.8 =      5.203 +j    8.2608
724           3           9.7628 /_ -122.2 =     -5.203 +j   -8.2608

ELEMENT = "Line.L13"
707           1            4.808 /_  -60.4 =     2.3784 +j   -4.1785
707           2           32.599 /_ -122.2 =    -17.355 +j   -27.595
707           3           35.127 /_   64.8 =     14.977 +j    31.774
------------
722           1            4.811 /_  119.6 =    -2.3781 +j    4.1822
722           2           32.599 /_   57.8 =     17.358 +j    27.593
722           3            35.13 /_ -115.2 =     -14.98 +j   -31.775

ELEMENT = "Line.L14"
708           1           122.77 /_  -25.5 =     110.83 +j   -52.813
708           2           87.953 /_ -173.6 =     -87.41 +j   -9.7628
708           3           66.814 /_  110.5 =    -23.418 +j    62.576
------------
733           1           122.77 /_  154.5 =    -110.83 +j    52.825
733           2           87.963 /_    6.4 =      87.42 +j    9.7558
733           3           66.815 /_  -69.5 =     23.407 +j   -62.581

ELEMENT = "Line.L15"
708           1           10.265 /_  -63.0 =      4.654 +j   -9.1493
708           2         0.010081 /_  -34.1 =  0.0083481 +j -0.0056509
708           3           10.274 /_  117.0 =    -4.6623 +j     9.155
------------
732           1           10.273 /_  116.9 =    -4.6532 +j    9.1589
732           2      3.0926E-012 /_ -144.0 =  -2.5011E-012 +j -1.819E-012
732           3           10.273 /_  -63.1 =     4.6532 +j   -9.1589

ELEMENT = "Line.L16"
709           1         0.022355 /_   85.3 =  0.0018477 +j  0.022278
709           2           19.633 /_ -120.9 =    -10.081 +j   -16.847
709           3           19.613 /_   59.1 =      10.08 +j    16.825
------------
731           1      2.7285E-012 /_  -90.0 =          0 +j -2.7285E-012
731           2           19.632 /_   59.0 =     10.101 +j    16.834
731           3           19.632 /_ -121.0 =    -10.101 +j   -16.834

ELEMENT = "Line.L17"
709           1           131.05 /_  -28.2 =     115.48 +j   -61.951
709           2           87.936 /_ -173.6 =    -87.391 +j   -9.7754
709           3           77.031 /_  111.4 =    -28.092 +j    71.726
------------
708           1           131.06 /_  151.8 =    -115.48 +j    61.962
708           2           87.946 /_    6.4 =     87.401 +j    9.7684
708           3           77.031 /_  -68.6 =     28.081 +j   -71.731

ELEMENT = "Line.L18"
710           1           20.487 /_  -61.8 =     9.6775 +j   -18.058
710           2        0.0062725 /_  -34.0 =  0.0051991 +j -0.0035091
710           3           20.493 /_  118.2 =    -9.6827 +j    18.061
------------
735           1           20.492 /_  118.2 =     -9.677 +j    18.064
735           2      6.1011E-012 /_ -116.6 =  -2.7285E-012 +j -5.457E-012
735           3           20.492 /_  -61.8 =      9.677 +j   -18.064

ELEMENT = "Line.L19"
710           1         0.037977 /_   85.2 =  0.0031459 +j  0.037847
710           2           9.7607 /_ -122.1 =    -5.1886 +j   -8.2673
710           3            9.727 /_   57.8 =     5.1855 +j    8.2295
------------
736           1      1.1197E-012 /_  156.0 =  -1.0232E-012 +j 4.5475E-013
736           2           9.7594 /_   57.7 =     5.2219 +j    8.2449
736           3           9.7594 /_ -122.3 =    -5.2219 +j   -8.2449

ELEMENT = "Line.L20"
711           1           10.203 /_  -63.3 =     4.5823 +j   -9.1158
711           2         0.015546 /_  -33.9 =   0.012901 +j -0.0086747
711           3           10.216 /_  116.7 =    -4.5952 +j    9.1245
------------
741           1           10.215 /_  116.6 =     -4.581 +j    9.1305
741           2      1.1647E-011 /_  128.7 =  -7.276E-012 +j 9.0949E-012
741           3           10.215 /_  -63.4 =      4.581 +j   -9.1305

ELEMENT = "Line.L21"
711           1           20.426 /_  -62.0 =     9.5964 +j   -18.031
711           2        0.0062576 /_  -33.9 =  0.0051929 +j -0.0034917
711           3           20.431 /_  118.0 =    -9.6016 +j    18.035
------------
740           1           20.431 /_  118.0 =    -9.5959 +j    18.037
740           2      8.3851E-012 /_ -167.5 =  -8.1855E-012 +j -1.819E-012
740           3           20.431 /_  -62.0 =     9.5959 +j   -18.037

ELEMENT = "Line.L22"
713           1           41.228 /_  -31.2 =     35.264 +j   -21.359
713           2            72.22 /_ -137.5 =    -53.211 +j    -48.83
713           3           72.446 /_   75.7 =     17.947 +j    70.188
------------
704           1           41.237 /_  148.8 =    -35.262 +j    21.378
704           2           72.225 /_   42.5 =     53.228 +j    48.818
704           3           72.459 /_ -104.4 =    -17.966 +j   -70.196

ELEMENT = "Line.L23"
714           1           19.169 /_    1.2 =     19.164 +j    0.3992
714           2           19.154 /_ -178.8 =    -19.149 +j  -0.39273
714           3         0.016246 /_ -156.5 =  -0.014903 +j -0.0064688
------------
718           1           19.167 /_ -178.9 =    -19.163 +j  -0.38346
718           2           19.167 /_    1.1 =     19.163 +j   0.38346
718           3      3.6663E-012 /_  -97.1 =  -4.5475E-013 +j -3.638E-012

ELEMENT = "Line.L24"
720           1           4.7659 /_  -60.0 =     2.3824 +j   -4.1277
720           2           42.364 /_ -122.1 =    -22.514 +j   -35.886
720           3           44.793 /_   63.3 =     20.132 +j    40.014
------------
707           1           4.7889 /_  119.8 =    -2.3802 +j    4.1555
707           2           42.363 /_   57.9 =     22.538 +j     35.87
707           3           44.815 /_ -116.7 =    -20.158 +j   -40.025

ELEMENT = "Line.L25"
720           1         0.031111 /_   85.5 =   0.002452 +j  0.031014
720           2           9.7519 /_ -122.1 =    -5.1755 +j   -8.2652
720           3           9.7243 /_   57.9 =     5.1731 +j    8.2342
------------
706           1        0.0084959 /_  -94.5 =  -0.0006695 +j -0.0084695
706           2            9.751 /_   57.8 =      5.195 +j    8.2519
706           3           9.7435 /_ -122.2 =    -5.1944 +j   -8.2434

ELEMENT = "Line.L26"
727           1            35.62 /_  -14.7 =     34.449 +j   -9.0561
727           2           35.926 /_ -166.8 =    -34.971 +j   -8.2248
727           3           17.289 /_   88.3 =    0.52209 +j    17.281
------------
744           1           35.622 /_  165.3 =    -34.448 +j    9.0665
744           2           35.933 /_   13.2 =      34.98 +j    8.2187
744           3           17.293 /_  -91.8 =   -0.53207 +j   -17.285

ELEMENT = "Line.L27"
730           1           131.04 /_  -28.2 =     115.49 +j   -61.921
730           2           101.04 /_ -164.7 =    -97.466 +j   -26.627
730           3           90.363 /_  101.5 =    -18.019 +j    88.548
------------
709           1           131.04 /_  151.8 =    -115.48 +j    61.928
709           2           101.04 /_   15.3 =     97.473 +j    26.623
709           3           90.364 /_  -78.5 =     18.012 +j   -88.551

ELEMENT = "Line.L28"
733           1           105.91 /_  -30.4 =     91.389 +j   -53.516
733           2           68.583 /_ -172.4 =    -67.982 +j   -9.0643
733           3           66.815 /_  110.5 =    -23.407 +j    62.581
------------
734           1           105.91 /_  149.6 =    -91.387 +j    53.537
734           2             68.6 /_    7.6 =         68 +j     9.052
734           3           66.816 /_  -69.5 =     23.387 +j   -62.589

ELEMENT = "Line.L29"
734           1           81.462 /_  -18.9 =     77.078 +j   -26.366
734           2           62.835 /_ -179.3 =     -62.83 +j  -0.77206
734           3            30.65 /_  117.7 =    -14.248 +j    27.138
------------
737           1           81.468 /_  161.1 =    -77.076 +j    26.389
737           2           62.855 /_    0.7 =     62.851 +j   0.75813
737           3           30.648 /_  -62.3 =     14.225 +j   -27.147

ELEMENT = "Line.L30"
734           1           20.443 /_  -61.7 =     9.6819 +j   -18.005
734           2           9.7615 /_ -122.0 =    -5.1699 +j     -8.28
734           3           26.669 /_   99.7 =     -4.512 +j    26.285
------------
710           1           20.456 /_  118.2 =    -9.6806 +j     18.02
710           2           9.7609 /_   57.9 =     5.1834 +j    8.2709
710           3           26.673 /_  -80.3 =     4.4972 +j   -26.291

ELEMENT = "Line.L31"
737           1           52.209 /_  -31.0 =     44.734 +j    -26.92
737           2            30.51 /_ -179.6 =    -30.509 +j  -0.22772
737           3           30.648 /_  117.7 =    -14.225 +j    27.147
------------
738           1           52.216 /_  148.9 =    -44.733 +j    26.934
738           2           30.523 /_    0.4 =     30.522 +j   0.21904
738           3           30.647 /_  -62.4 =     14.211 +j   -27.153

ELEMENT = "Line.L32"
738           1           30.614 /_  -62.4 =      14.18 +j   -27.132
738           2         0.037351 /_  -33.9 =   0.030995 +j -0.020841
738           3           30.647 /_  117.6 =    -14.211 +j    27.153
------------
711           1           30.627 /_  117.6 =    -14.179 +j    27.147
711           2         0.021804 /_  146.1 =  -0.018094 +j  0.012166
711           3           30.646 /_  -62.4 =     14.197 +j   -27.159

ELEMENT = "Line.L33"
744           1           17.274 /_  -31.8 =     14.681 +j   -9.1024
744           2           17.283 /_ -151.7 =    -15.221 +j   -8.1863
744           3           17.297 /_   88.2 =     0.5401 +j    17.289
------------
728           1           17.276 /_  148.2 =     -14.68 +j    9.1084
728           2           17.286 /_   28.3 =     15.226 +j    8.1827
728           3             17.3 /_  -91.8 =   -0.54583 +j   -17.291

ELEMENT = "Line.L34"
744           1            9.735 /_    0.4 =     9.7347 +j  0.072351
744           2           9.7269 /_ -179.6 =    -9.7267 +j -0.068909
744           3        0.0087363 /_ -156.8 =  -0.0080292 +j -0.0034433
------------
729           1           9.7342 /_ -179.6 =     -9.734 +j -0.063931
729           2           9.7342 /_    0.4 =      9.734 +j  0.063931
729           3       4.834E-012 /_  -48.8 =  3.1832E-012 +j -3.638E-012

ELEMENT = "Line.L35"
799R          1           369.63 /_  -37.9 =     291.64 +j   -227.09
799R          2           278.32 /_ -152.6 =    -247.16 +j   -127.97
799R          3           357.83 /_   97.1 =    -44.485 +j    355.05
------------
701           1           369.71 /_  142.1 =    -291.63 +j    227.24
701           2            278.4 /_   27.3 =     247.29 +j    127.88
701           3           357.88 /_  -82.9 =     44.342 +j   -355.12

ELEMENT = "Transformer.REG1A"
799           1           406.59 /_  -37.9 =      320.8 +j    -249.8
799           2           406.59 /_  142.1 =     -320.8 +j     249.8
------------
799R          1           369.63 /_  142.1 =    -291.64 +j    227.09
799R          2           369.63 /_  -37.9 =     291.64 +j   -227.09

ELEMENT = "Transformer.REG1C"
799           3           389.14 /_   97.1 =    -48.377 +j    386.12
799           2           389.14 /_  -82.9 =     48.377 +j   -386.12
------------
799R          3           357.83 /_  -82.9 =     44.485 +j   -355.05
799R          2           357.83 /_   97.1 =    -44.485 +j    355.05

ELEMENT = "Line.JUMPER"
799           2       0.00017895 /_  -35.1 =  0.00014637 +j -0.00010294
------------
799R          2       0.00017895 /_  144.9 =  -0.00014637 +j 0.00010294

= = = = = = = = = = = = = = = = = = =  = = = = = = = = = = =  = =

Power Conversion Elements

  Bus     Phase    Magnitude, A     Angle      (Real)   +j  (Imag)

ELEMENT = "Load.S701A"
701           1           32.909 /_   -0.1 =     32.909 +j -0.081469
701           2           32.909 /_  179.9 =    -32.909 +j  0.081469

ELEMENT = "Load.S701B"
701           2           32.044 /_ -122.0 =    -16.967 +j   -27.184
701           3           32.044 /_   58.0 =     16.967 +j    27.184

ELEMENT = "Load.S701C"
701           3           83.472 /_  117.6 =    -38.636 +j    73.992
701           1           83.472 /_  -62.4 =     38.636 +j   -73.992

ELEMENT = "Load.S712C"
712           3           20.253 /_  118.8 =     -9.748 +j    17.753
712           1           20.253 /_  -61.2 =      9.748 +j   -17.753

ELEMENT = "Load.S713C"
713           3            20.25 /_  118.7 =    -9.7388 +j    17.754
713           1            20.25 /_  -61.3 =     9.7388 +j   -17.754

ELEMENT = "Load.S714A"
714           1           3.9006 /_    1.6 =     3.8991 +j   0.10654
714           2           3.9006 /_ -178.4 =    -3.8991 +j  -0.10654

ELEMENT = "Load.S714B"
714           2           4.8523 /_ -121.3 =    -2.5177 +j    -4.148
714           3           4.8523 /_   58.7 =     2.5177 +j     4.148

ELEMENT = "Load.S718A"
718           1           19.166 /_    1.1 =     19.163 +j   0.38341
718           2           19.166 /_ -178.9 =    -19.163 +j  -0.38341

ELEMENT = "Load.S720C"
720           3           20.341 /_  118.8 =    -9.8103 +j    17.819
720           1           20.341 /_  -61.2 =     9.8103 +j   -17.819

ELEMENT = "Load.S722B"
722           2           32.599 /_ -122.2 =    -17.359 +j   -27.592
722           3           32.599 /_   57.8 =     17.359 +j    27.592

ELEMENT = "Load.S722C"
722           3           4.8108 /_  119.6 =    -2.3778 +j     4.182
722           1           4.8108 /_  -60.4 =     2.3778 +j    -4.182

ELEMENT = "Load.S724B"
724           2           9.7627 /_ -122.2 =    -5.2032 +j   -8.2605
724           3           9.7627 /_   57.8 =     5.2032 +j    8.2605

ELEMENT = "Load.S725B"
725           2           9.7506 /_ -122.2 =    -5.2026 +j   -8.2466
725           3           9.7506 /_   57.8 =     5.2026 +j    8.2466

ELEMENT = "Load.S727C"
727           3           10.183 /_  117.1 =    -4.6408 +j    9.0639
727           1           10.183 /_  -62.9 =     4.6408 +j   -9.0639

ELEMENT = "Load.S728"
728           1           17.276 /_  -31.8 =     14.679 +j   -9.1081
728           2           17.285 /_ -151.7 =    -15.226 +j   -8.1824
728           3           17.299 /_   88.2 =    0.54659 +j    17.291

ELEMENT = "Load.S729A"
729           1           9.7339 /_    0.4 =     9.7337 +j  0.063915
729           2           9.7339 /_ -179.6 =    -9.7337 +j -0.063915

ELEMENT = "Load.S730C"
730           3           18.718 /_  118.4 =    -8.8988 +j    16.468
730           1           18.718 /_  -61.6 =     8.8988 +j   -16.468

ELEMENT = "Load.S731B"
731           2           19.632 /_ -121.0 =    -10.101 +j   -16.833
731           3           19.632 /_   59.0 =     10.101 +j    16.833

ELEMENT = "Load.S732C"
732           3           10.273 /_  116.9 =    -4.6527 +j    9.1586
732           1           10.273 /_  -63.1 =     4.6527 +j   -9.1586

ELEMENT = "Load.S733A"
733           1            19.45 /_    2.0 =     19.438 +j   0.69143
733           2            19.45 /_ -178.0 =    -19.438 +j  -0.69143

ELEMENT = "Load.S734C"
734           3           10.268 /_  116.8 =    -4.6268 +j    9.1667
734           1           10.268 /_  -63.2 =     4.6268 +j   -9.1667

ELEMENT = "Load.S735C"
735           3           20.492 /_  118.2 =    -9.6759 +j    18.063
735           1           20.492 /_  -61.8 =     9.6759 +j   -18.063

ELEMENT = "Load.S736B"
736           2           9.7593 /_ -122.3 =    -5.2221 +j   -8.2446
736           3           9.7593 /_   57.7 =     5.2221 +j    8.2446

ELEMENT = "Load.S737A"
737           1           32.344 /_    0.9 =      32.34 +j   0.53033
737           2           32.344 /_ -179.1 =     -32.34 +j  -0.53033

ELEMENT = "Load.S738A"
738           1           30.553 /_    0.4 =     30.552 +j   0.19812
738           2           30.553 /_ -179.6 =    -30.552 +j  -0.19812

ELEMENT = "Load.S740C"
740           3            20.43 /_  118.0 =    -9.5948 +j    18.037
740           1            20.43 /_  -62.0 =     9.5948 +j   -18.037

ELEMENT = "Load.S741C"
741           3           10.215 /_  116.6 =    -4.5805 +j    9.1302
741           1           10.215 /_  -63.4 =     4.5805 +j   -9.1302

ELEMENT = "Load.S742A"
742           1           1.8316 /_   -0.2 =     1.8316 +j -0.006502
742           2           1.8316 /_  179.8 =    -1.8316 +j  0.006502

ELEMENT = "Load.S742B"
742           2           19.761 /_ -120.8 =    -10.121 +j   -16.972
742           3           19.761 /_   59.2 =     10.121 +j    16.972

ELEMENT = "Load.S744A"
744           1           10.033 /_   -0.2 =     10.033 +j -0.036547
744           2           10.033 /_  179.8 =    -10.033 +j  0.036547

