demos/Bus_37/ieee37_VLL_Node.Txt

LINE-LINE VOLTAGES BY BUS & NODE

Bus       Node    VLN (kV)   Angle      pu     Base kV 

SOURCEBUS 1-2        230 /_   30.0   0.99999   230.000
   -      2-3        230 /_  -90.0   0.99999   230.000
   -      3-1        230 /_  150.0   0.99999   230.000
799 ..... 1-2     4.4329 /_   26.6   0.92351     4.800
   -      2-3      4.552 /_  -94.3   0.94833     4.800
   -      3-1     4.4315 /_  144.8   0.92322     4.800
709 ..... 1-2     4.6639 /_   26.5   0.97164     4.800
   -      2-3     4.8234 /_  -95.7    1.0049     4.800
   -      3-1     4.5904 /_  143.6   0.95633     4.800
775 ..... 1-2    0.46639 /_   26.5   0.97164     0.480
   -      2-3    0.48234 /_  -95.7    1.0049     0.480
   -      3-1    0.45904 /_  143.6   0.95633     0.480
701 ..... 1-2     4.7628 /_   26.5   0.99224     4.800
   -      2-3     4.8891 /_  -95.3    1.0186     4.800
   -      3-1     4.6947 /_  144.2   0.97805     4.800
702 ..... 1-2     4.7294 /_   26.4   0.98529     4.800
   -      2-3     4.8615 /_  -95.5    1.0128     4.800
   -      3-1     4.6546 /_  144.0   0.96971     4.800
705 ..... 1-2     4.7264 /_   26.4   0.98466     4.800
   -      2-3      4.855 /_  -95.5    1.0115     4.800
   -      3-1     4.6483 /_  144.1   0.96839     4.800
713 ..... 1-2     4.7229 /_   26.4   0.98394     4.800
   -      2-3     4.8524 /_  -95.6    1.0109     4.800
   -      3-1     4.6458 /_  144.0   0.96788     4.800
703 ..... 1-2     4.6959 /_   26.4   0.97832     4.800
   -      2-3     4.8426 /_  -95.7    1.0089     4.800
   -      3-1     4.6228 /_  143.8   0.96308     4.800
727 ..... 1-2     4.6905 /_   26.4   0.97718     4.800
   -      2-3     4.8394 /_  -95.6    1.0082     4.800
   -      3-1     4.6181 /_  143.8    0.9621     4.800
730 ..... 1-2     4.6716 /_   26.4   0.97325     4.800
   -      2-3      4.828 /_  -95.7    1.0058     4.800
   -      3-1     4.5975 /_  143.7    0.9578     4.800
704 ..... 1-2     4.7147 /_   26.4   0.98222     4.800
   -      2-3     4.8401 /_  -95.6    1.0084     4.800
   -      3-1      4.637 /_  144.1   0.96604     4.800
714 ..... 1-2     4.7134 /_   26.4   0.98197     4.800
   -      2-3     4.8396 /_  -95.6    1.0083     4.800
   -      3-1     4.6366 /_  144.1   0.96596     4.800
720 ..... 1-2     4.7088 /_   26.4   0.98099     4.800
   -      2-3      4.824 /_  -95.6     1.005     4.800
   -      3-1      4.625 /_  144.1   0.96355     4.800
742 ..... 1-2     4.7247 /_   26.4   0.98431     4.800
   -      2-3      4.851 /_  -95.5    1.0106     4.800
   -      3-1     4.6473 /_  144.1   0.96819     4.800
712 ..... 1-2     4.7258 /_   26.4   0.98454     4.800
   -      2-3     4.8541 /_  -95.6    1.0113     4.800
   -      3-1     4.6452 /_  144.1   0.96774     4.800
706 ..... 1-2     4.7082 /_   26.3   0.98088     4.800
   -      2-3      4.822 /_  -95.6    1.0046     4.800
   -      3-1     4.6244 /_  144.1   0.96342     4.800
725 ..... 1-2     4.7076 /_   26.3   0.98076     4.800
   -      2-3     4.8203 /_  -95.6    1.0042     4.800
   -      3-1     4.6241 /_  144.1   0.96334     4.800
707 ..... 1-2        4.7 /_   26.3   0.97916     4.800
   -      2-3     4.7992 /_  -95.6   0.99982     4.800
   -      3-1     4.6173 /_  144.3   0.96194     4.800
724 ..... 1-2     4.6984 /_   26.2   0.97883     4.800
   -      2-3     4.7946 /_  -95.6   0.99887     4.800
   -      3-1     4.6164 /_  144.3   0.96174     4.800
722 ..... 1-2     4.6991 /_   26.3   0.97897     4.800
   -      2-3     4.7966 /_  -95.6    0.9993     4.800
   -      3-1     4.6164 /_  144.3   0.96176     4.800
708 ..... 1-2     4.6521 /_   26.5   0.96918     4.800
   -      2-3     4.8183 /_  -95.7    1.0038     4.800
   -      3-1     4.5798 /_  143.6   0.95413     4.800
733 ..... 1-2     4.6406 /_   26.5   0.96679     4.800
   -      2-3     4.8134 /_  -95.7    1.0028     4.800
   -      3-1     4.5705 /_  143.5   0.95218     4.800
732 ..... 1-2     4.6517 /_   26.5    0.9691     4.800
   -      2-3     4.8176 /_  -95.7    1.0037     4.800
   -      3-1     4.5777 /_  143.6    0.9537     4.800
731 ..... 1-2     4.6628 /_   26.4   0.97142     4.800
   -      2-3     4.8193 /_  -95.7     1.004     4.800
   -      3-1     4.5891 /_  143.7   0.95606     4.800
710 ..... 1-2      4.622 /_   26.6   0.96291     4.800
   -      2-3     4.8006 /_  -95.7    1.0001     4.800
   -      3-1     4.5473 /_  143.5   0.94736     4.800
735 ..... 1-2     4.6215 /_   26.6   0.96282     4.800
   -      2-3     4.7999 /_  -95.7   0.99997     4.800
   -      3-1     4.5447 /_  143.5   0.94681     4.800
736 ..... 1-2     4.6193 /_   26.6   0.96236     4.800
   -      2-3     4.7929 /_  -95.7   0.99853     4.800
   -      3-1     4.5457 /_  143.5   0.94702     4.800
711 ..... 1-2     4.6015 /_   26.6   0.95865     4.800
   -      2-3     4.7979 /_  -95.7   0.99957     4.800
   -      3-1      4.535 /_  143.3   0.94478     4.800
741 ..... 1-2     4.6011 /_   26.7   0.95857     4.800
   -      2-3     4.7976 /_  -95.7    0.9995     4.800
   -      3-1     4.5334 /_  143.3   0.94447     4.800
740 ..... 1-2     4.6011 /_   26.7   0.95855     4.800
   -      2-3     4.7972 /_  -95.7   0.99941     4.800
   -      3-1     4.5323 /_  143.3   0.94424     4.800
718 ..... 1-2     4.7073 /_   26.4   0.98068     4.800
   -      2-3     4.8385 /_  -95.5     1.008     4.800
   -      3-1     4.6348 /_  144.0   0.96559     4.800
744 ..... 1-2      4.687 /_   26.4   0.97646     4.800
   -      2-3     4.8375 /_  -95.6    1.0078     4.800
   -      3-1     4.6162 /_  143.8    0.9617     4.800
734 ..... 1-2     4.6243 /_   26.6    0.9634     4.800
   -      2-3     4.8058 /_  -95.7    1.0012     4.800
   -      3-1     4.5548 /_  143.4   0.94892     4.800
737 ..... 1-2     4.6083 /_   26.6   0.96006     4.800
   -      2-3     4.8009 /_  -95.7    1.0002     4.800
   -      3-1     4.5449 /_  143.3   0.94685     4.800
738 ..... 1-2     4.6028 /_   26.6   0.95891     4.800
   -      2-3     4.7989 /_  -95.7   0.99977     4.800
   -      3-1     4.5395 /_  143.3   0.94573     4.800
728 ..... 1-2     4.6852 /_   26.4   0.97607     4.800
   -      2-3     4.8357 /_  -95.6    1.0074     4.800
   -      3-1     4.6142 /_  143.8    0.9613     4.800
729 ..... 1-2     4.6853 /_   26.4   0.97611     4.800
   -      2-3     4.8372 /_  -95.6    1.0078     4.800
   -      3-1     4.6157 /_  143.7    0.9616     4.800
799R .... 1-2     4.8208 /_   26.5    1.0043     4.800
   -      2-3     4.9412 /_  -94.9    1.0294     4.800
   -      3-1     4.7734 /_  144.5   0.99446     4.800
