demos/Bus_37/ieee37_VLN_Node.Txt

LINE-GROUND and LINE-LINE VOLTAGES BY BUS & NODE

Bus       Node    VLN (kV)   Angle      pu     Base kV    Node-Node   VLL (kV)  Angle      pu

SOURCEBUS 1       132.61 /_   -0.1   0.99867   230.000        1-2     229.73 /_   30.0   0.99881
   -      2       132.67 /_ -120.0   0.99907   230.000        2-3     229.81 /_  -90.1   0.99917
   -      3       132.66 /_  119.9   0.99903   230.000        3-1     229.72 /_  149.9   0.99878
799 ..... 1       2.4103 /_   -9.0   0.86974     4.800        1-2     4.4271 /_   26.5    0.9223
   -      2       2.8366 /_ -123.9    1.0236     4.800        2-3      4.548 /_  -94.4   0.94749
   -      3       2.5029 /_  119.5   0.90317     4.800        3-1     4.4256 /_  144.7   0.92199
709 ..... 1       2.6286 /_   -4.7   0.94853     4.800        1-2     4.6575 /_   26.4   0.97031
   -      2       2.7654 /_ -124.1   0.99788     4.800        2-3      4.819 /_  -95.8     1.004
   -      3       2.7237 /_  113.1   0.98284     4.800        3-1      4.584 /_  143.6     0.955
775 ..... 1      0.26286 /_   -4.7   0.94852     0.480        1-2    0.46575 /_   26.4   0.97031
   -      2      0.27652 /_ -124.1    0.9978     0.480        2-3     0.4819 /_  -95.8     1.004
   -      3       0.2724 /_  113.1   0.98292     0.480        3-1     0.4584 /_  143.6     0.955
701 ..... 1       2.6941 /_   -4.5   0.97214     4.800        1-2     4.7564 /_   26.4   0.99091
   -      2       2.8091 /_ -124.1    1.0137     4.800        2-3     4.8847 /_  -95.4    1.0176
   -      3       2.7697 /_  113.7   0.99944     4.800        3-1     4.6882 /_  144.1    0.9767
702 ..... 1       2.6712 /_   -4.6   0.96389     4.800        1-2      4.723 /_   26.4   0.98396
   -      2       2.7932 /_ -124.2    1.0079     4.800        2-3     4.8571 /_  -95.6    1.0119
   -      3       2.7502 /_  113.5    0.9924     4.800        3-1     4.6481 /_  143.9   0.96836
705 ..... 1       2.6689 /_   -4.5   0.96304     4.800        1-2       4.72 /_   26.4   0.98332
   -      2       2.7907 /_ -124.2     1.007     4.800        2-3     4.8506 /_  -95.6    1.0105
   -      3       2.7459 /_  113.5   0.99084     4.800        3-1     4.6418 /_  144.0   0.96703
713 ..... 1       2.6671 /_   -4.6   0.96241     4.800        1-2     4.7165 /_   26.4   0.98261
   -      2       2.7888 /_ -124.2    1.0063     4.800        2-3      4.848 /_  -95.6      1.01
   -      3       2.7446 /_  113.4   0.99039     4.800        3-1     4.6393 /_  143.9   0.96652
703 ..... 1       2.6497 /_   -4.7   0.95614     4.800        1-2     4.6895 /_   26.3   0.97698
   -      2       2.7791 /_ -124.2    1.0028     4.800        2-3     4.8382 /_  -95.7    1.0079
   -      3       2.7372 /_  113.2    0.9877     4.800        3-1     4.6163 /_  143.7   0.96174
727 ..... 1       2.6464 /_   -4.7   0.95495     4.800        1-2     4.6841 /_   26.4   0.97585
   -      2       2.7767 /_ -124.2    1.0019     4.800        2-3      4.835 /_  -95.7    1.0073
   -      3       2.7352 /_  113.2   0.98699     4.800        3-1     4.6116 /_  143.7   0.96075
730 ..... 1       2.6334 /_   -4.7   0.95026     4.800        1-2     4.6652 /_   26.4   0.97191
   -      2       2.7688 /_ -124.1   0.99911     4.800        2-3     4.8236 /_  -95.8    1.0049
   -      3       2.7267 /_  113.1    0.9839     4.800        3-1      4.591 /_  143.6   0.95646
704 ..... 1        2.663 /_   -4.6   0.96092     4.800        1-2     4.7083 /_   26.3   0.98089
   -      2       2.7825 /_ -124.2     1.004     4.800        2-3     4.8357 /_  -95.6    1.0074
   -      3       2.7381 /_  113.5   0.98804     4.800        3-1     4.6305 /_  144.0   0.96468
714 ..... 1       2.6624 /_   -4.6   0.96072     4.800        1-2      4.707 /_   26.3   0.98064
   -      2       2.7819 /_ -124.2    1.0038     4.800        2-3     4.8352 /_  -95.6    1.0073
   -      3        2.738 /_  113.5   0.98801     4.800        3-1     4.6301 /_  144.0    0.9646
720 ..... 1       2.6593 /_   -4.5   0.95958     4.800        1-2     4.7024 /_   26.3   0.97966
   -      2       2.7762 /_ -124.3    1.0018     4.800        2-3     4.8196 /_  -95.7    1.0041
   -      3       2.7286 /_  113.5   0.98458     4.800        3-1     4.6185 /_  144.0   0.96219
742 ..... 1       2.6686 /_   -4.5   0.96296     4.800        1-2     4.7183 /_   26.4   0.98298
   -      2       2.7887 /_ -124.2    1.0063     4.800        2-3     4.8466 /_  -95.6    1.0097
   -      3       2.7443 /_  113.5   0.99026     4.800        3-1     4.6408 /_  144.0   0.96683
712 ..... 1       2.6676 /_   -4.5    0.9626     4.800        1-2     4.7194 /_   26.4    0.9832
   -      2       2.7907 /_ -124.2     1.007     4.800        2-3     4.8497 /_  -95.6    1.0104
   -      3       2.7445 /_  113.5   0.99032     4.800        3-1     4.6386 /_  144.0   0.96638
706 ..... 1       2.6592 /_   -4.5   0.95956     4.800        1-2     4.7018 /_   26.3   0.97955
   -      2       2.7753 /_ -124.3    1.0015     4.800        2-3     4.8176 /_  -95.7    1.0037
   -      3       2.7276 /_  113.5   0.98425     4.800        3-1     4.6179 /_  144.0   0.96206
725 ..... 1       2.6592 /_   -4.5   0.95956     4.800        1-2     4.7012 /_   26.3   0.97943
   -      2       2.7745 /_ -124.3    1.0012     4.800        2-3     4.8159 /_  -95.7    1.0033
   -      3        2.727 /_  113.5   0.98401     4.800        3-1     4.6175 /_  144.1   0.96199
707 ..... 1       2.6578 /_   -4.5   0.95906     4.800        1-2     4.6936 /_   26.2   0.97783
   -      2       2.7646 /_ -124.4    0.9976     4.800        2-3     4.7948 /_  -95.6   0.99891
   -      3       2.7177 /_  113.6   0.98066     4.800        3-1     4.6108 /_  144.2   0.96058
724 ..... 1       2.6578 /_   -4.5   0.95904     4.800        1-2      4.692 /_   26.2    0.9775
   -      2       2.7624 /_ -124.4    0.9968     4.800        2-3     4.7902 /_  -95.6   0.99795
   -      3       2.7158 /_  113.7      0.98     4.800        3-1     4.6098 /_  144.2   0.96038
722 ..... 1       2.6576 /_   -4.5   0.95899     4.800        1-2     4.6927 /_   26.2   0.97764
   -      2       2.7635 /_ -124.4   0.99718     4.800        2-3     4.7922 /_  -95.6   0.99838
   -      3       2.7165 /_  113.6   0.98025     4.800        3-1     4.6099 /_  144.2    0.9604
708 ..... 1        2.621 /_   -4.8   0.94577     4.800        1-2     4.6457 /_   26.4   0.96785
   -      2       2.7609 /_ -124.1   0.99624     4.800        2-3     4.8139 /_  -95.8    1.0029
   -      3         2.72 /_  113.0    0.9815     4.800        3-1     4.5734 /_  143.5    0.9528
733 ..... 1       2.6139 /_   -4.8   0.94321     4.800        1-2     4.6342 /_   26.5   0.96546
   -      2       2.7563 /_ -124.1   0.99461     4.800        2-3      4.809 /_  -95.8    1.0019
   -      3       2.7168 /_  113.0   0.98034     4.800        3-1     4.5641 /_  143.4   0.95085
732 ..... 1       2.6202 /_   -4.7   0.94547     4.800        1-2     4.6453 /_   26.5   0.96777
   -      2       2.7609 /_ -124.1   0.99624     4.800        2-3     4.8132 /_  -95.8    1.0028
   -      3        2.719 /_  113.0   0.98115     4.800        3-1     4.5713 /_  143.5   0.95236
731 ..... 1       2.6285 /_   -4.7   0.94849     4.800        1-2     4.6564 /_   26.4   0.97009
   -      2       2.7636 /_ -124.2   0.99724     4.800        2-3     4.8149 /_  -95.8    1.0031
   -      3       2.7218 /_  113.1   0.98216     4.800        3-1     4.5827 /_  143.6   0.95472
710 ..... 1       2.6003 /_   -4.8    0.9383     4.800        1-2     4.6156 /_   26.5   0.96158
   -      2       2.7486 /_ -124.0   0.99182     4.800        2-3     4.7962 /_  -95.8   0.99922
   -      3       2.7067 /_  112.9    0.9767     4.800        3-1     4.5409 /_  143.4   0.94603
735 ..... 1       2.5992 /_   -4.7   0.93792     4.800        1-2     4.6151 /_   26.6   0.96149
   -      2       2.7486 /_ -124.0   0.99182     4.800        2-3     4.7955 /_  -95.8   0.99905
   -      3       2.7055 /_  112.9   0.97627     4.800        3-1     4.5383 /_  143.4   0.94548
736 ..... 1       2.6002 /_   -4.8   0.93826     4.800        1-2     4.6129 /_   26.5   0.96103
   -      2       2.7449 /_ -124.0   0.99047     4.800        2-3     4.7885 /_  -95.8   0.99761
   -      3       2.7036 /_  112.9   0.97559     4.800        3-1     4.5393 /_  143.4    0.9457
711 ..... 1       2.5881 /_   -4.8    0.9339     4.800        1-2     4.5951 /_   26.6   0.95732
   -      2       2.7421 /_ -123.9   0.98946     4.800        2-3     4.7935 /_  -95.8   0.99865
   -      3       2.7049 /_  112.8   0.97606     4.800        3-1     4.5286 /_  143.2   0.94346
741 ..... 1       2.5874 /_   -4.8   0.93365     4.800        1-2     4.5947 /_   26.6   0.95724
   -      2       2.7421 /_ -123.9   0.98946     4.800        2-3     4.7932 /_  -95.8   0.99859
   -      3       2.7043 /_  112.8   0.97584     4.800        3-1     4.5271 /_  143.2   0.94315
740 ..... 1       2.5871 /_   -4.8   0.93352     4.800        1-2     4.5947 /_   26.6   0.95722
   -      2       2.7421 /_ -123.9   0.98946     4.800        2-3     4.7928 /_  -95.8   0.99849
   -      3       2.7037 /_  112.8   0.97563     4.800        3-1      4.526 /_  143.2   0.94292
718 ..... 1       2.6596 /_   -4.6   0.95969     4.800        1-2     4.7009 /_   26.3   0.97935
   -      2       2.7795 /_ -124.2     1.003     4.800        2-3     4.8341 /_  -95.6    1.0071
   -      3       2.7381 /_  113.5   0.98804     4.800        3-1     4.6283 /_  143.9   0.96423
744 ..... 1       2.6447 /_   -4.7   0.95433     4.800        1-2     4.6806 /_   26.4   0.97513
   -      2        2.775 /_ -124.2    1.0013     4.800        2-3     4.8331 /_  -95.7    1.0069
   -      3       2.7344 /_  113.2   0.98671     4.800        3-1     4.6097 /_  143.7   0.96035
734 ..... 1        2.603 /_   -4.8   0.93929     4.800        1-2     4.6179 /_   26.5   0.96206
   -      2       2.7501 /_ -124.0   0.99236     4.800        2-3     4.8014 /_  -95.8    1.0003
   -      3       2.7111 /_  112.9   0.97828     4.800        3-1     4.5484 /_  143.3   0.94759
737 ..... 1        2.594 /_   -4.9   0.93602     4.800        1-2     4.6019 /_   26.6   0.95872
   -      2       2.7439 /_ -123.9   0.99013     4.800        2-3     4.7965 /_  -95.7   0.99927
   -      3       2.7085 /_  112.9   0.97735     4.800        3-1     4.5385 /_  143.3   0.94552
738 ..... 1       2.5902 /_   -4.9   0.93464     4.800        1-2     4.5964 /_   26.6   0.95758
   -      2       2.7421 /_ -123.9   0.98946     4.800        2-3     4.7945 /_  -95.7   0.99885
   -      3       2.7068 /_  112.8   0.97672     4.800        3-1     4.5332 /_  143.2   0.94441
728 ..... 1       2.6436 /_   -4.7   0.95393     4.800        1-2     4.6787 /_   26.4   0.97474
   -      2       2.7739 /_ -124.2    1.0009     4.800        2-3     4.8313 /_  -95.7    1.0065
   -      3       2.7334 /_  113.2   0.98632     4.800        3-1     4.6078 /_  143.7   0.95995
729 ..... 1       2.6439 /_   -4.7   0.95405     4.800        1-2     4.6789 /_   26.4   0.97478
   -      2       2.7743 /_ -124.2    1.0011     4.800        2-3     4.8328 /_  -95.7    1.0068
   -      3       2.7345 /_  113.2   0.98671     4.800        3-1     4.6092 /_  143.7   0.96025
799R .... 1       2.7366 /_   -4.4   0.98748     4.800        1-2     4.8144 /_   26.5     1.003
   -      2       2.8366 /_ -123.9    1.0236     4.800        2-3     4.9368 /_  -95.0    1.0285
   -      3       2.8088 /_  114.2    1.0135     4.800        3-1     4.7669 /_  144.5   0.99311
